Version 4
SHEET 1 4188 1480
WIRE -992 32 -992 -16
WIRE -544 32 -544 -16
WIRE -992 160 -992 112
WIRE -544 160 -544 112
WIRE -880 416 -1072 416
WIRE -784 416 -880 416
WIRE -720 416 -784 416
WIRE -576 416 -656 416
WIRE -448 416 -576 416
WIRE -192 416 -448 416
WIRE -112 416 -192 416
WIRE -576 512 -576 480
WIRE -448 512 -448 480
WIRE -1072 528 -1072 480
WIRE -1072 528 -1104 528
WIRE -880 528 -880 480
WIRE -848 528 -880 528
WIRE -192 528 -192 496
WIRE -1072 560 -1072 528
WIRE -880 560 -880 528
WIRE -880 624 -1072 624
WIRE -848 624 -880 624
WIRE -416 1040 -416 1008
WIRE -416 1040 -480 1040
WIRE -928 1072 -960 1072
WIRE -832 1072 -848 1072
WIRE -800 1072 -832 1072
WIRE -640 1088 -640 1008
WIRE -416 1088 -416 1040
WIRE -480 1120 -480 1040
WIRE -768 1136 -768 1008
WIRE -832 1152 -832 1072
WIRE -800 1152 -832 1152
WIRE -720 1168 -720 1072
WIRE -720 1168 -736 1168
WIRE -640 1168 -720 1168
WIRE -560 1168 -640 1168
WIRE -416 1168 -464 1168
WIRE -288 1168 -416 1168
WIRE -1072 1184 -1136 1184
WIRE -912 1184 -992 1184
WIRE -800 1184 -912 1184
WIRE -768 1248 -768 1200
FLAG -992 -16 dynamo1
IOPIN -992 -16 Out
FLAG -992 160 dynamo2
IOPIN -992 160 Out
FLAG -848 624 0
FLAG -784 416 V_RECT_TP1-IN
IOPIN -784 416 Out
FLAG -192 528 0
FLAG -848 528 dynamo1
IOPIN -848 528 Out
FLAG -1104 528 dynamo2
IOPIN -1104 528 Out
FLAG -576 512 0
FLAG -112 416 V_REGULATED_TP2-IN
IOPIN -112 416 Out
FLAG -448 512 0
FLAG -544 160 0
FLAG -544 -16 5V0
IOPIN -544 -16 Out
FLAG -768 1248 0
FLAG -960 1072 0
FLAG -1136 1184 dynamo1
IOPIN -1136 1184 Out
FLAG -912 1248 0
FLAG -640 1008 V_REGULATED_TP2-IN
IOPIN -640 1008 Out
FLAG -416 1008 5V0
IOPIN -416 1008 Out
FLAG -288 1168 ZeroCross
IOPIN -288 1168 Out
FLAG -768 1008 V_REGULATED_TP2-IN
IOPIN -768 1008 Out
SYMBOL voltage -992 16 R0
WINDOW 123 0 0 Left 0
WINDOW 39 0 0 Left 0
SYMATTR InstName V1
SYMATTR Value SINE(0 60 112)
SYMBOL res -208 400 R0
SYMATTR InstName R1
SYMATTR Value 120
SYMBOL schottky -1056 480 R180
WINDOW 0 24 64 Left 2
WINDOW 3 24 0 Left 2
SYMATTR InstName D1
SYMATTR Value RB500SM-30
SYMATTR Description Diode
SYMATTR Type diode
SYMBOL schottky -1056 624 R180
WINDOW 0 24 64 Left 2
WINDOW 3 24 0 Left 2
SYMATTR InstName D2
SYMATTR Value RB500SM-30
SYMATTR Description Diode
SYMATTR Type diode
SYMBOL schottky -864 624 R180
WINDOW 0 24 64 Left 2
WINDOW 3 24 0 Left 2
SYMATTR InstName D3
SYMATTR Value RB500SM-30
SYMATTR Description Diode
SYMATTR Type diode
SYMBOL schottky -864 480 R180
WINDOW 0 24 64 Left 2
WINDOW 3 24 0 Left 2
SYMATTR InstName D4
SYMATTR Value RB500SM-30
SYMATTR Description Diode
SYMATTR Type diode
SYMBOL polcap -592 416 R0
SYMATTR InstName C1
SYMATTR Value 4800u
SYMBOL schottky -720 432 R270
WINDOW 0 32 32 VTop 2
WINDOW 3 0 32 VBottom 2
SYMATTR InstName D5
SYMATTR Value RB500SM-30
SYMATTR Description Diode
SYMATTR Type diode
SYMBOL Comparators\\LT1716 -768 1168 R0
SYMATTR InstName U2
SYMBOL voltage -544 16 R0
WINDOW 123 0 0 Left 0
WINDOW 39 0 0 Left 0
SYMATTR InstName V2
SYMATTR Value 5
SYMBOL res -832 1056 R90
WINDOW 0 0 56 VBottom 2
WINDOW 3 32 56 VTop 2
SYMATTR InstName R3
SYMATTR Value 100k
SYMBOL res -976 1168 R90
WINDOW 0 0 56 VBottom 2
WINDOW 3 32 56 VTop 2
SYMATTR InstName R4
SYMATTR Value 30k
SYMBOL res -704 1056 R90
WINDOW 0 0 56 VBottom 2
WINDOW 3 32 56 VTop 2
SYMATTR InstName R5
SYMATTR Value 47k
SYMBOL diode -896 1248 R180
WINDOW 0 24 64 Left 2
WINDOW 3 24 0 Left 2
SYMATTR InstName D6
SYMATTR Value 1N4148
SYMBOL nmos -560 1120 M90
SYMATTR InstName M1
SYMBOL res -656 1072 R0
SYMATTR InstName R2
SYMATTR Value 100k
SYMBOL res -432 1072 R0
SYMATTR InstName R7
SYMATTR Value 10k
SYMBOL polcap -464 416 R0
SYMATTR InstName C2
SYMATTR Value 4800u
TEXT -1000 -272 Left 2 !.tran .1
TEXT -1168 -856 Left 2 ;stock dynamo: 3W, 6V: 500mA over a 12Ohm load\nwheel circumference: approx. 2m, 28 poles\n \nspeed [m/s] - speed [km/h] - freq. [Hz]\n2 - 3.6 - 56\n4 - 14.4 - 112\n6 - 21,6 - 168\n8 - 28,8 - 224\n10 - 36,0 - 280\n12 - 43.2 - 336\n14 - 50,4 - 392\n16 - 57,6 - 448\n20 - 72.7 - 560
